****** HSPICE -- K-2015.06-SP1 linux64 (Aug 23 2015) ******
 Input File: 0_scrit.sp
 lic:
 lic: FLEXlm: v11.2.1
 lic: USER:   woong                HOSTNAME: vlsisys2
 lic: HOSTID: ac1f6bdb66c4         PID:      136324
 lic: Using FLEXlm license file:
 lic: 27000@vlsisys2
 lic: Checkout 1 hspice
 lic: License/Maintenance for hspice will expire on 31-dec-2030/2019.12
 lic: NODE LOCKED license on hostid ac1f6bdb66c4
 lic:
 init: begin read circuit files,  cpu clock=  5.30E-01
       option search = /tools/synopsys/HSPICE/K-2015.06-SP1/hspice/part
                         s/ad
       option search = /tools/synopsys/HSPICE/K-2015.06-SP1/hspice/part
                         s/ad
       option search = /tools/synopsys/HSPICE/K-2015.06-SP1/hspice/part
                         s/behave
       option search = /tools/synopsys/HSPICE/K-2015.06-SP1/hspice/part
                         s/bjt
       option search = /tools/synopsys/HSPICE/K-2015.06-SP1/hspice/part
                         s/burr_brn
       option search = /tools/synopsys/HSPICE/K-2015.06-SP1/hspice/part
                         s/comlinear
       option search = /tools/synopsys/HSPICE/K-2015.06-SP1/hspice/part
                         s/dio
       option search = /tools/synopsys/HSPICE/K-2015.06-SP1/hspice/part
                         s/fet
       option search = /tools/synopsys/HSPICE/K-2015.06-SP1/hspice/part
                         s/lin_tech
       option search = /tools/synopsys/HSPICE/K-2015.06-SP1/hspice/part
                         s/pci
       option search = /tools/synopsys/HSPICE/K-2015.06-SP1/hspice/part
                         s/signet
       option search = /tools/synopsys/HSPICE/K-2015.06-SP1/hspice/part
                         s/ti
       option search = /tools/synopsys/HSPICE/K-2015.06-SP1/hspice/part
                         s/tline
       option search = /tools/synopsys/HSPICE/K-2015.06-SP1/hspice/part
                         s/xilinx
       option runlvl
       option post
       option probe
       option measdgt =     6.00
       option numdgt =     6.00
       option ingold
       option modmonte =     1.00
       option mtthred =     2.00
       option measform =     3.00
       option mcbrief =     2.00
       option abstol =    1.000E-06
       option reltol =    1.000E-06
 init: end read circuit files,  cpu clock=  6.60E-01 peak memory=       227 mb
 init: begin check errors,  cpu clock=  6.60E-01
 init: end check errors,  cpu clock=  7.00E-01 peak memory=       231 mb
 init: begin setup matrix, pivot=     0 cpu clock=  7.00E-01
       establish matrix -- done,  cpu clock=  7.00E-01 peak memory=       231 mb
       re-order matrix -- done,  cpu clock=  7.00E-01 peak memory=       231 mb
 init: end setup matrix,  cpu clock=  7.00E-01 peak memory=       231 mb
 sweep: begin optimization
 sweep: dc dc0    begin, #sweeps= 901 cpu clock=  7.00E-01
 sweep: dc dc0    end,  cpu clock=  1.81E+00 peak memory=       231 mb
 sweep: dc dc0    begin, #sweeps= 901 cpu clock=  1.81E+00
 sweep: dc dc0    end,  cpu clock=  2.91E+00 peak memory=       231 mb
 sweep: dc dc0    begin, #sweeps= 901 cpu clock=  2.91E+00
 sweep: dc dc0    end,  cpu clock=  3.91E+00 peak memory=       231 mb
 sweep: dc dc0    begin, #sweeps= 901 cpu clock=  3.91E+00
 sweep: dc dc0    end,  cpu clock=  4.90E+00 peak memory=       231 mb
 sweep: dc dc0    begin, #sweeps= 901 cpu clock=  4.90E+00
 sweep: dc dc0    end,  cpu clock=  5.90E+00 peak memory=       231 mb
 sweep: dc dc0    begin, #sweeps= 901 cpu clock=  5.90E+00
 sweep: dc dc0    end,  cpu clock=  6.89E+00 peak memory=       231 mb
 sweep: dc dc0    begin, #sweeps= 901 cpu clock=  6.89E+00
 sweep: dc dc0    end,  cpu clock=  7.88E+00 peak memory=       231 mb
 sweep: dc dc0    begin, #sweeps= 901 cpu clock=  7.88E+00
 sweep: dc dc0    end,  cpu clock=  8.87E+00 peak memory=       231 mb
 sweep: dc dc0    begin, #sweeps= 901 cpu clock=  8.87E+00
 sweep: dc dc0    end,  cpu clock=  9.87E+00 peak memory=       231 mb
 sweep: dc dc0    begin, #sweeps= 901 cpu clock=  9.87E+00
 sweep: dc dc0    end,  cpu clock=  1.09E+01 peak memory=       231 mb
 sweep: dc dc0    begin, #sweeps= 901 cpu clock=  1.09E+01
 sweep: dc dc0    end,  cpu clock=  1.19E+01 peak memory=       231 mb
 sweep: dc dc0    begin, #sweeps= 901 cpu clock=  1.19E+01
 sweep: dc dc0    end,  cpu clock=  1.28E+01 peak memory=       231 mb
 sweep: dc dc0    begin, #sweeps= 901 cpu clock=  1.28E+01
 sweep: dc dc0    end,  cpu clock=  1.38E+01 peak memory=       231 mb
 sweep: dc dc0    begin, #sweeps= 901 cpu clock=  1.38E+01
 sweep: dc dc0    end,  cpu clock=  1.48E+01 peak memory=       231 mb
 sweep: dc dc0    begin, #sweeps= 901 cpu clock=  1.48E+01
 sweep: dc dc0    end,  cpu clock=  1.58E+01 peak memory=       231 mb
 sweep: dc dc0    begin, #sweeps= 901 cpu clock=  1.58E+01
 sweep: dc dc0    end,  cpu clock=  1.68E+01 peak memory=       231 mb
 sweep: dc dc0    begin, #sweeps= 901 cpu clock=  1.68E+01
 sweep: dc dc0    end,  cpu clock=  1.78E+01 peak memory=       231 mb
 sweep: dc dc0    begin, #sweeps= 901 cpu clock=  1.78E+01
 sweep: dc dc0    end,  cpu clock=  1.88E+01 peak memory=       231 mb
 sweep: dc dc0    begin, #sweeps= 901 cpu clock=  1.88E+01
 sweep: dc dc0    end,  cpu clock=  1.98E+01 peak memory=       231 mb
 sweep: dc dc0    begin, #sweeps= 901 cpu clock=  1.98E+01
 sweep: dc dc0    end,  cpu clock=  2.07E+01 peak memory=       231 mb
 sweep: dc dc0    begin, #sweeps= 901 cpu clock=  2.07E+01
 sweep: dc dc0    end,  cpu clock=  2.17E+01 peak memory=       231 mb
 sweep: dc dc0    begin, #sweeps= 901 cpu clock=  2.17E+01
 sweep: dc dc0    end,  cpu clock=  2.27E+01 peak memory=       231 mb
 sweep: dc dc0    begin, #sweeps= 901 cpu clock=  2.27E+01
 sweep: dc dc0    end,  cpu clock=  2.37E+01 peak memory=       231 mb
 sweep: dc dc0    begin, #sweeps= 901 cpu clock=  2.37E+01
 sweep: dc dc0    end,  cpu clock=  2.46E+01 peak memory=       231 mb
 sweep: dc dc0    begin, #sweeps= 901 cpu clock=  2.46E+01
 sweep: dc dc0    end,  cpu clock=  2.56E+01 peak memory=       231 mb
 sweep: dc dc0    begin, #sweeps= 901 cpu clock=  2.56E+01
 sweep: dc dc0    end,  cpu clock=  2.66E+01 peak memory=       231 mb
 sweep: dc dc0    begin, #sweeps= 901 cpu clock=  2.66E+01
 sweep: dc dc0    end,  cpu clock=  2.76E+01 peak memory=       231 mb
 sweep: dc dc0    begin, #sweeps= 901 cpu clock=  2.76E+01
 sweep: dc dc0    end,  cpu clock=  2.85E+01 peak memory=       231 mb
 sweep: dc dc0    begin, #sweeps= 901 cpu clock=  2.85E+01
 sweep: dc dc0    end,  cpu clock=  2.95E+01 peak memory=       231 mb
 sweep: dc dc0    begin, #sweeps= 901 cpu clock=  2.95E+01
 sweep: dc dc0    end,  cpu clock=  3.05E+01 peak memory=       231 mb
 sweep: dc dc0    begin, #sweeps= 901 cpu clock=  3.05E+01
 sweep: dc dc0    end,  cpu clock=  3.15E+01 peak memory=       231 mb
 sweep: dc dc0    begin, #sweeps= 901 cpu clock=  3.15E+01
 sweep: dc dc0    end,  cpu clock=  3.24E+01 peak memory=       231 mb
 sweep: dc dc0    begin, #sweeps= 901 cpu clock=  3.24E+01
 sweep: dc dc0    end,  cpu clock=  3.34E+01 peak memory=       231 mb
 sweep: dc dc0    begin, #sweeps= 901 cpu clock=  3.34E+01
 sweep: dc dc0    end,  cpu clock=  3.44E+01 peak memory=       231 mb
 sweep: dc dc0    begin, #sweeps= 901 cpu clock=  3.44E+01
 sweep: dc dc0    end,  cpu clock=  3.54E+01 peak memory=       231 mb
 sweep: dc dc0    begin, #sweeps= 901 cpu clock=  3.54E+01
 sweep: dc dc0    end,  cpu clock=  3.63E+01 peak memory=       231 mb
 sweep: dc dc0    begin, #sweeps= 901 cpu clock=  3.63E+01
 sweep: dc dc0    end,  cpu clock=  3.73E+01 peak memory=       231 mb
 sweep: dc dc0    begin, #sweeps= 901 cpu clock=  3.73E+01
 sweep: dc dc0    end,  cpu clock=  3.83E+01 peak memory=       231 mb
 sweep: dc dc0    begin, #sweeps= 901 cpu clock=  3.83E+01
 sweep: dc dc0    end,  cpu clock=  3.93E+01 peak memory=       231 mb
 output: 0_scrit.sw0
 sweep: dc dc0    begin, #sweeps= 901 cpu clock=  3.93E+01
 sweep: dc dc0    end,  cpu clock=  4.02E+01 peak memory=       231 mb
 sweep: end optimization
>info:         ***** hspice job concluded
 lic: Release hspice token(s)
