****** HSPICE -- K-2015.06-SP1 linux64 (Aug 23 2015) ******
 Input File: ./sim/0_scrit.sp
 lic:
 lic: FLEXlm: v11.2.1
 lic: USER:   woong                HOSTNAME: vlsisys2
 lic: HOSTID: ac1f6bdb66c4         PID:      136384
 lic: Using FLEXlm license file:
 lic: 27000@vlsisys2
 lic: Checkout 1 hspice
 lic: License/Maintenance for hspice will expire on 31-dec-2030/2019.12
 lic: NODE LOCKED license on hostid ac1f6bdb66c4
 lic:
 init: begin read circuit files,  cpu clock=  5.10E-01
       option search = /tools/synopsys/HSPICE/K-2015.06-SP1/hspice/part
                         s/ad
       option search = /tools/synopsys/HSPICE/K-2015.06-SP1/hspice/part
                         s/ad
       option search = /tools/synopsys/HSPICE/K-2015.06-SP1/hspice/part
                         s/behave
       option search = /tools/synopsys/HSPICE/K-2015.06-SP1/hspice/part
                         s/bjt
       option search = /tools/synopsys/HSPICE/K-2015.06-SP1/hspice/part
                         s/burr_brn
       option search = /tools/synopsys/HSPICE/K-2015.06-SP1/hspice/part
                         s/comlinear
       option search = /tools/synopsys/HSPICE/K-2015.06-SP1/hspice/part
                         s/dio
       option search = /tools/synopsys/HSPICE/K-2015.06-SP1/hspice/part
                         s/fet
       option search = /tools/synopsys/HSPICE/K-2015.06-SP1/hspice/part
                         s/lin_tech
       option search = /tools/synopsys/HSPICE/K-2015.06-SP1/hspice/part
                         s/pci
       option search = /tools/synopsys/HSPICE/K-2015.06-SP1/hspice/part
                         s/signet
       option search = /tools/synopsys/HSPICE/K-2015.06-SP1/hspice/part
                         s/ti
       option search = /tools/synopsys/HSPICE/K-2015.06-SP1/hspice/part
                         s/tline
       option search = /tools/synopsys/HSPICE/K-2015.06-SP1/hspice/part
                         s/xilinx
       option runlvl
       option post
       option probe
       option measdgt =     6.00
       option numdgt =     6.00
       option ingold
       option modmonte =     1.00
       option mtthred =     2.00
       option measform =     3.00
       option mcbrief =     2.00
       option abstol =    1.000E-06
       option reltol =    1.000E-06
 init: end read circuit files,  cpu clock=  6.50E-01 peak memory=       227 mb
 init: begin check errors,  cpu clock=  6.50E-01
 init: end check errors,  cpu clock=  6.90E-01 peak memory=       232 mb
 init: begin setup matrix, pivot=     0 cpu clock=  6.90E-01
       establish matrix -- done,  cpu clock=  6.90E-01 peak memory=       232 mb
       re-order matrix -- done,  cpu clock=  6.90E-01 peak memory=       232 mb
 init: end setup matrix,  cpu clock=  6.90E-01 peak memory=       232 mb
 sweep: begin optimization
 sweep: dc dc0    begin, #sweeps= 901 cpu clock=  7.00E-01
 sweep: dc dc0    end,  cpu clock=  1.80E+00 peak memory=       232 mb
 sweep: dc dc0    begin, #sweeps= 901 cpu clock=  1.80E+00
 sweep: dc dc0    end,  cpu clock=  2.93E+00 peak memory=       232 mb
 sweep: dc dc0    begin, #sweeps= 901 cpu clock=  2.93E+00
 sweep: dc dc0    end,  cpu clock=  3.94E+00 peak memory=       232 mb
 sweep: dc dc0    begin, #sweeps= 901 cpu clock=  3.94E+00
 sweep: dc dc0    end,  cpu clock=  4.95E+00 peak memory=       232 mb
 sweep: dc dc0    begin, #sweeps= 901 cpu clock=  4.95E+00
 sweep: dc dc0    end,  cpu clock=  5.97E+00 peak memory=       232 mb
 sweep: dc dc0    begin, #sweeps= 901 cpu clock=  5.97E+00
 sweep: dc dc0    end,  cpu clock=  6.99E+00 peak memory=       232 mb
 sweep: dc dc0    begin, #sweeps= 901 cpu clock=  6.99E+00
 sweep: dc dc0    end,  cpu clock=  8.00E+00 peak memory=       232 mb
 sweep: dc dc0    begin, #sweeps= 901 cpu clock=  8.00E+00
 sweep: dc dc0    end,  cpu clock=  9.01E+00 peak memory=       232 mb
 sweep: dc dc0    begin, #sweeps= 901 cpu clock=  9.02E+00
 sweep: dc dc0    end,  cpu clock=  1.00E+01 peak memory=       232 mb
 sweep: dc dc0    begin, #sweeps= 901 cpu clock=  1.00E+01
 sweep: dc dc0    end,  cpu clock=  1.11E+01 peak memory=       232 mb
 sweep: dc dc0    begin, #sweeps= 901 cpu clock=  1.11E+01
 sweep: dc dc0    end,  cpu clock=  1.21E+01 peak memory=       232 mb
 sweep: dc dc0    begin, #sweeps= 901 cpu clock=  1.21E+01
 sweep: dc dc0    end,  cpu clock=  1.31E+01 peak memory=       232 mb
 sweep: dc dc0    begin, #sweeps= 901 cpu clock=  1.31E+01
 sweep: dc dc0    end,  cpu clock=  1.41E+01 peak memory=       232 mb
 sweep: dc dc0    begin, #sweeps= 901 cpu clock=  1.41E+01
 sweep: dc dc0    end,  cpu clock=  1.51E+01 peak memory=       232 mb
 sweep: dc dc0    begin, #sweeps= 901 cpu clock=  1.51E+01
 sweep: dc dc0    end,  cpu clock=  1.61E+01 peak memory=       232 mb
 sweep: dc dc0    begin, #sweeps= 901 cpu clock=  1.61E+01
 sweep: dc dc0    end,  cpu clock=  1.71E+01 peak memory=       232 mb
 sweep: dc dc0    begin, #sweeps= 901 cpu clock=  1.71E+01
 sweep: dc dc0    end,  cpu clock=  1.82E+01 peak memory=       232 mb
 sweep: dc dc0    begin, #sweeps= 901 cpu clock=  1.82E+01
 sweep: dc dc0    end,  cpu clock=  1.92E+01 peak memory=       232 mb
 sweep: dc dc0    begin, #sweeps= 901 cpu clock=  1.92E+01
 sweep: dc dc0    end,  cpu clock=  2.02E+01 peak memory=       232 mb
 sweep: dc dc0    begin, #sweeps= 901 cpu clock=  2.02E+01
 sweep: dc dc0    end,  cpu clock=  2.12E+01 peak memory=       232 mb
 sweep: dc dc0    begin, #sweeps= 901 cpu clock=  2.12E+01
 sweep: dc dc0    end,  cpu clock=  2.22E+01 peak memory=       232 mb
 sweep: dc dc0    begin, #sweeps= 901 cpu clock=  2.22E+01
 sweep: dc dc0    end,  cpu clock=  2.32E+01 peak memory=       232 mb
 sweep: dc dc0    begin, #sweeps= 901 cpu clock=  2.32E+01
 sweep: dc dc0    end,  cpu clock=  2.43E+01 peak memory=       232 mb
 sweep: dc dc0    begin, #sweeps= 901 cpu clock=  2.43E+01
 sweep: dc dc0    end,  cpu clock=  2.53E+01 peak memory=       232 mb
 sweep: dc dc0    begin, #sweeps= 901 cpu clock=  2.53E+01
 sweep: dc dc0    end,  cpu clock=  2.63E+01 peak memory=       232 mb
 sweep: dc dc0    begin, #sweeps= 901 cpu clock=  2.63E+01
 sweep: dc dc0    end,  cpu clock=  2.73E+01 peak memory=       232 mb
 sweep: dc dc0    begin, #sweeps= 901 cpu clock=  2.73E+01
 sweep: dc dc0    end,  cpu clock=  2.83E+01 peak memory=       232 mb
 sweep: dc dc0    begin, #sweeps= 901 cpu clock=  2.83E+01
 sweep: dc dc0    end,  cpu clock=  2.93E+01 peak memory=       232 mb
 sweep: dc dc0    begin, #sweeps= 901 cpu clock=  2.93E+01
 sweep: dc dc0    end,  cpu clock=  3.04E+01 peak memory=       232 mb
 sweep: dc dc0    begin, #sweeps= 901 cpu clock=  3.04E+01
 sweep: dc dc0    end,  cpu clock=  3.14E+01 peak memory=       232 mb
 sweep: dc dc0    begin, #sweeps= 901 cpu clock=  3.14E+01
 sweep: dc dc0    end,  cpu clock=  3.24E+01 peak memory=       232 mb
 sweep: dc dc0    begin, #sweeps= 901 cpu clock=  3.24E+01
 sweep: dc dc0    end,  cpu clock=  3.34E+01 peak memory=       232 mb
 sweep: dc dc0    begin, #sweeps= 901 cpu clock=  3.34E+01
 sweep: dc dc0    end,  cpu clock=  3.44E+01 peak memory=       232 mb
 sweep: dc dc0    begin, #sweeps= 901 cpu clock=  3.44E+01
 sweep: dc dc0    end,  cpu clock=  3.55E+01 peak memory=       232 mb
 sweep: dc dc0    begin, #sweeps= 901 cpu clock=  3.55E+01
 sweep: dc dc0    end,  cpu clock=  3.65E+01 peak memory=       232 mb
 sweep: dc dc0    begin, #sweeps= 901 cpu clock=  3.65E+01
 sweep: dc dc0    end,  cpu clock=  3.75E+01 peak memory=       232 mb
 sweep: dc dc0    begin, #sweeps= 901 cpu clock=  3.75E+01
 sweep: dc dc0    end,  cpu clock=  3.85E+01 peak memory=       232 mb
 sweep: dc dc0    begin, #sweeps= 901 cpu clock=  3.85E+01
 sweep: dc dc0    end,  cpu clock=  3.95E+01 peak memory=       232 mb
 sweep: dc dc0    begin, #sweeps= 901 cpu clock=  3.95E+01
 sweep: dc dc0    end,  cpu clock=  4.05E+01 peak memory=       232 mb
 output: ./sim/0_scrit.sw0
 sweep: dc dc0    begin, #sweeps= 901 cpu clock=  4.05E+01
 sweep: dc dc0    end,  cpu clock=  4.15E+01 peak memory=       232 mb
 sweep: end optimization
>info:         ***** hspice job concluded
 lic: Release hspice token(s)
